Output.txt
PowerFlowAnalysis
**********************************************************
******************Ybus Calculations***********************
**********************************************************
Line radius
0.015189
 
Distance between conductors
9
 
Height to Ground
30
 
Rl = 
6.7233e-05
 
Number of buses = 
5
 
Bus Distances
    12      23      34      41      45      51
350000  305000  250000  290000  300000  320000
 
Deq
11.3393
 
Radius eq
0.011829
 
L = 
1.3731e-06
 
Omega = 
376.9911
 
Xl = 
0.00051764
 
Zl = 
6.7233e-05+0.00051764i
 
Epsilon0 = 
8.85e-12
 
Height to conductor reflections = 
60
 
H12 = 
60.6712
 
H23 = 
60.6712
 
H31 = 
62.6418
 
Cn = 
8.4333e-12
 
Yl = 
0+3.1793e-09i
 
Gamma = 
8.3136e-08+1.2855e-06i
 
Incidence Matrix = 
1  1  0  0  0  0  0  0  0  0  1  1  0  0  0  0  1  1
0 -1  1  1  1  0  0  0  0  0  0  0  0  0  0  0  0  0
0  0  0  0 -1  1  1  1  0  0  0  0  0  0  0  0  0  0
0  0  0  0  0  0  0 -1  1  1 -1  0  1  1  0  0  0  0
0  0  0  0  0  0  0  0  0  0  0  0  0 -1  1  1 -1  0
 
Yp and Ys = 
       12+0i                      23+0i                      34+0i                      41+0i                       45+0i                     51+0i       
0.0020232+0.905452i       0.00132569+0.785788i      0.000722674+0.641359i       0.00113617+0.746214i        0.00126028+0.77258i       0.00153588+0.825514i
  1.12704-8.98859i           1.29379-10.2294i           1.57885-12.3731i           1.36084-10.7315i             1.3154-10.391i           1.23302-9.77565i 
 
YbranchVector = 
0.0020232+0.905452i           1.12704-8.98859i        0.0020232+0.905452i       0.00132569+0.785788i           1.29379-10.2294i       0.00132569+0.785788i      0.000722674+0.641359i           1.57885-12.3731i      0.000722674+0.641359i       0.00113617+0.746214i           1.36084-10.7315i       0.00113617+0.746214i        0.00126028+0.77258i             1.3154-10.391i        0.00126028+0.77258i       0.00153588+0.825514i           1.23302-9.77565i       0.00153588+0.825514i
 
Ybranch = 
0.0020232+0.905452i                 0+0i                      0+0i                       0+0i                        0+0i                      0+0i                       0+0i                        0+0i                      0+0i                       0+0i                        0+0i                      0+0i                        0+0i                        0+0i                      0+0i                      0+0i                        0+0i                      0+0i       
        0+0i                  1.12704-8.98859i                0+0i                       0+0i                        0+0i                      0+0i                       0+0i                        0+0i                      0+0i                       0+0i                        0+0i                      0+0i                        0+0i                        0+0i                      0+0i                      0+0i                        0+0i                      0+0i       
        0+0i                        0+0i              0.0020232+0.905452i                0+0i                        0+0i                      0+0i                       0+0i                        0+0i                      0+0i                       0+0i                        0+0i                      0+0i                        0+0i                        0+0i                      0+0i                      0+0i                        0+0i                      0+0i       
        0+0i                        0+0i                      0+0i              0.00132569+0.785788i                 0+0i                      0+0i                       0+0i                        0+0i                      0+0i                       0+0i                        0+0i                      0+0i                        0+0i                        0+0i                      0+0i                      0+0i                        0+0i                      0+0i       
        0+0i                        0+0i                      0+0i                       0+0i                  1.29379-10.2294i                0+0i                       0+0i                        0+0i                      0+0i                       0+0i                        0+0i                      0+0i                        0+0i                        0+0i                      0+0i                      0+0i                        0+0i                      0+0i       
        0+0i                        0+0i                      0+0i                       0+0i                        0+0i             0.00132569+0.785788i                0+0i                        0+0i                      0+0i                       0+0i                        0+0i                      0+0i                        0+0i                        0+0i                      0+0i                      0+0i                        0+0i                      0+0i       
        0+0i                        0+0i                      0+0i                       0+0i                        0+0i                      0+0i             0.000722674+0.641359i                 0+0i                      0+0i                       0+0i                        0+0i                      0+0i                        0+0i                        0+0i                      0+0i                      0+0i                        0+0i                      0+0i       
        0+0i                        0+0i                      0+0i                       0+0i                        0+0i                      0+0i                       0+0i                  1.57885-12.3731i                0+0i                       0+0i                        0+0i                      0+0i                        0+0i                        0+0i                      0+0i                      0+0i                        0+0i                      0+0i       
        0+0i                        0+0i                      0+0i                       0+0i                        0+0i                      0+0i                       0+0i                        0+0i            0.000722674+0.641359i                0+0i                        0+0i                      0+0i                        0+0i                        0+0i                      0+0i                      0+0i                        0+0i                      0+0i       
        0+0i                        0+0i                      0+0i                       0+0i                        0+0i                      0+0i                       0+0i                        0+0i                      0+0i              0.00113617+0.746214i                 0+0i                      0+0i                        0+0i                        0+0i                      0+0i                      0+0i                        0+0i                      0+0i       
        0+0i                        0+0i                      0+0i                       0+0i                        0+0i                      0+0i                       0+0i                        0+0i                      0+0i                       0+0i                  1.36084-10.7315i                0+0i                        0+0i                        0+0i                      0+0i                      0+0i                        0+0i                      0+0i       
        0+0i                        0+0i                      0+0i                       0+0i                        0+0i                      0+0i                       0+0i                        0+0i                      0+0i                       0+0i                        0+0i             0.00113617+0.746214i                 0+0i                        0+0i                      0+0i                      0+0i                        0+0i                      0+0i       
        0+0i                        0+0i                      0+0i                       0+0i                        0+0i                      0+0i                       0+0i                        0+0i                      0+0i                       0+0i                        0+0i                      0+0i               0.00126028+0.77258i                  0+0i                      0+0i                      0+0i                        0+0i                      0+0i       
        0+0i                        0+0i                      0+0i                       0+0i                        0+0i                      0+0i                       0+0i                        0+0i                      0+0i                       0+0i                        0+0i                      0+0i                        0+0i                   1.3154-10.391i                 0+0i                      0+0i                        0+0i                      0+0i       
        0+0i                        0+0i                      0+0i                       0+0i                        0+0i                      0+0i                       0+0i                        0+0i                      0+0i                       0+0i                        0+0i                      0+0i                        0+0i                        0+0i             0.00126028+0.77258i                0+0i                        0+0i                      0+0i       
        0+0i                        0+0i                      0+0i                       0+0i                        0+0i                      0+0i                       0+0i                        0+0i                      0+0i                       0+0i                        0+0i                      0+0i                        0+0i                        0+0i                      0+0i             0.00153588+0.825514i                 0+0i                      0+0i       
        0+0i                        0+0i                      0+0i                       0+0i                        0+0i                      0+0i                       0+0i                        0+0i                      0+0i                       0+0i                        0+0i                      0+0i                        0+0i                        0+0i                      0+0i                      0+0i                  1.23302-9.77565i                0+0i       
        0+0i                        0+0i                      0+0i                       0+0i                        0+0i                      0+0i                       0+0i                        0+0i                      0+0i                       0+0i                        0+0i                      0+0i                        0+0i                        0+0i                      0+0i                      0+0i                        0+0i             0.00153588+0.825514i
 
Ybus = 
 3.72559-27.0185i          -1.12704+8.98859i                 0+0i                -1.36084+10.7315i          -1.23302+9.77565i
-1.12704+8.98859i           2.42419-17.5267i          -1.29379+10.2294i                 0+0i                       0+0i      
       0+0i                -1.29379+10.2294i           2.87469-21.1753i          -1.57885+12.3731i                 0+0i      
-1.36084+10.7315i                 0+0i                -1.57885+12.3731i            4.2582-31.3354i           -1.3154+10.391i 
-1.23302+9.77565i                 0+0i                       0+0i                 -1.3154+10.391i            2.55122-18.5685i
 
**********************************************************
****************End Ybus Calculations*********************
**********************************************************
 
 
**********************************************************
*************Initial Conditions of Buses******************
**********************************************************
 
Pg Original = 
99999    550      0      0      0
 
Qg Original = 
99999  99999      0      0      0
 
Pd Original = 
0  350  290  225  320
 
Qd Original = 
0  220  195  120  205
 
V original = 
400    395  99999  99999  99999
 
Delta in degrees Original = 
0  99999  99999  99999  99999
 
Pg_pu = 
99999             5.5               0               0               0
 
Qg_pu = 
99999  99999      0      0      0
 
Pd_pu = 
0         3.5         2.9        2.25         3.2
 
Qd_pu = 
0         2.2        1.95         1.2        2.05
 
V_pu = 
1          0.9875           99999           99999           99999
 
Delta in radians = 
0  99999  99999  99999  99999
 
Unknowns = 
1  0  0  0  0
1  1  0  0  0
0  0  0  0  0
0  0  0  0  0
0  0  1  1  1
0  1  1  1  1
 
Bus Types = 
0  1  2  2  2
 
**********************************************************
************End Initial Conditions of Buses***************
**********************************************************
 
 
**********************************************************
*******************Initial Guesses************************
**********************************************************
 
V_pu with Initial Guesses
1      0.9875         0.9         0.9         0.9
 
delta_rad with Initial Guesses
0    -0.17453    -0.17453    -0.17453    -0.17453
 
Qg_pu with Initial Guesses
99999    -0.548183348               0               0               0
 
**********************************************************
*****************End Initial Guesses**********************
**********************************************************
 
 
Convergence Condition
1e-06
 
Number of Iterations for buses to convergence
0  39  37  37  36
 
Number of Iterations for whole system to convergence
39
 
Qg_pu approximations
99999    -0.173009598               0               0               0
 
V_pu approximations
1      0.9875     0.84114     0.87919     0.82904
 
delta_rad approximations
0   -0.042831    -0.33667    -0.30636      -0.345
 
XXXXXXXXXXX
Program End